data/D002900/LineCodes.dss
New Linecode.19/3.75_AAC_-_PLUTO_3 units=km nphases=3 Faultrate=0.1 Cmatrix=(2799.9999999999995 -600.0 -600.0 | -600.0 2799.9999999999995 -600.0 | -600.0 -600.0 2799.9999999999995 ) R1=0.137 R0=0.137 X1=0.316 X0=0.316 C1=0.0 C0=0.0 BaseFreq=50 normamps=400.0 emergamps=600.0
New Linecode.25AL_ABC_3 units=km nphases=3 Faultrate=0.1 Cmatrix=(2799.9999999999995 -600.0 -600.0 | -600.0 2799.9999999999995 -600.0 | -600.0 -600.0 2799.9999999999995 ) R1=1.49 R0=1.49 X1=0.102 X0=0.102 C1=0.0 C0=0.0 BaseFreq=50 normamps=400.0 emergamps=600.0
New Linecode.38_HD_CU_3 units=km nphases=3 Faultrate=0.1 Cmatrix=(2799.9999999999995 -600.0 -600.0 | -600.0 2799.9999999999995 -600.0 | -600.0 -600.0 2799.9999999999995 ) R1=0.433 R0=0.433 X1=0.378 X0=0.378 C1=0.0 C0=0.0 BaseFreq=50 normamps=400.0 emergamps=600.0
New Linecode.66_HDCU_(19/2.11)_3 units=km nphases=3 Faultrate=0.1 Cmatrix=(2799.9999999999995 -600.0 -600.0 | -600.0 2799.9999999999995 -600.0 | -600.0 -600.0 2799.9999999999995 ) R1=0.302 R0=0.302 X1=0.359 X0=0.359 C1=0.0 C0=0.0 BaseFreq=50 normamps=400.0 emergamps=600.0
New Linecode.7/4.5_AAC_-_MERCURY_3 units=km nphases=3 Faultrate=0.1 Cmatrix=(2799.9999999999995 -600.0 -600.0 | -600.0 2799.9999999999995 -600.0 | -600.0 -600.0 2799.9999999999995 ) R1=0.258 R0=0.258 X1=0.34 X0=0.34 C1=0.0 C0=0.0 BaseFreq=50 normamps=400.0 emergamps=600.0
New Linecode.unknown_linecode_3 units=km nphases=3 Faultrate=0.1 Cmatrix=(2799.9999999999995 -600.0 -600.0 | -600.0 2799.9999999999995 -600.0 | -600.0 -600.0 2799.9999999999995 ) R1=0.0 R0=0.0 X1=0.0 X0=0.0 C1=0.0 C0=0.0 BaseFreq=50 normamps=400.0 emergamps=600.0
